LTspice 24.0.12 for Windows
Circuit: * D:\LAB_simulation_EE230\ECG Project 1\Notch_50hz.asc
Start Time: Sat Apr 12 14:44:00 2025
solver = Normal
Maximum thread count: 8
tnom = 27
temp = 27
method = modified trap
.OP point found by inspection.
Total elapsed time: 0.077 seconds.

